"""
 Skeletal kinetic schemes obtained from the complete POLIMI mechanism http://creckmodeling.chem.polimi.it/

Reduced Kinetic Schemes of Complex Reaction Systems: Fossil and Biomass-Derived Transportation Fuels
E. Ranzi, A. Frassoldati, A. Stagni, M. Pelucchi, A. Cuoci, T. Faravelli,
International Journal of Chemical Kinetics
Volume 46(9):512542 (2014)
DOI:10.1002/kin.20867


"""

units(length='cm', time='s', quantity='mol', act_energy='cal/mol')

ideal_gas(name='gas',
          elements="Ar N O H C",
          species="""AR            N2            O2            H2
                     H2O           H2O2          CO            CO2
                     CH2O          HCO3H         CH4           CH3OH
                     CH3OOH        C2H2          CH2CO         C2H4
                     C2H4O         CH3CHO        C2-OQOOH      CH3CO3H
                     C2H6          C2H5OOH       AC3H4         PC3H4
                     C2H3CHO       C3H6          C3H5OH        C2H5CHO
                     C3H6O2        C4H4          C4H6          C3H5CHO
                     IC3H5CHO      MACRIL        NC4H8         C4H7OH
                     C3H7CHO       CYC5H6        C5H8          NC5H10
                     NC5H12        NC7H14        NC7H14O       NC7H13OOH
                     NC7-OQOOH     NC7H16        NC7H15OOH     O
                     H             OH            HO2           CH
                     HCO           HCO3          CH2           CH2S
                     CH3           CH2OH         CH3O          CH3OO
                     C2H           HCCO          C2H3          CH2CHO
                     CH3CO         CH3OCO        CH3CO3        C2H5
                     C2H4OH        C2-QOOH       C2H5OO        C2-OOQOOH
                     C3H3          CH2CHCH2      CHCHCH3       CH3COCH2
                     RALD3B        C3H5OO        CH3CHOOCHO    IC3H7
                     NC3H7         NC3H7OO       IC3H7OO       NC3-QOOH
                     NC3-OOQOOH    C4H5          SC4H7         CH2C3H5
                     NC4H9P        NC4H9S        NC4-QOOH      NC4H9-OO
                     NC4-OOQOOH    CYC5H5        NC5H9-3       C5EN-OO-3
                     C5EN-QOOH-35  NC5H11        NC5H12OO      NC5-QOOH
                     NC7H13        NC7H13O2      NC7H15        NC7-QOOH
                     NC7H15-OO     NC7-OOQOOH""",
          reactions='all',
          transport='Mix',
          initial_state=state(temperature=300.0, pressure=OneAtm))

#-------------------------------------------------------------------------------
# Species data
#-------------------------------------------------------------------------------

species(name=u'AR',
        atoms='Ar:1',
        thermo=(NASA([300.00, 1000.00],
                     [ 2.50000000E+00,  0.00000000E+00,  0.00000000E+00,
                       0.00000000E+00,  0.00000000E+00, -7.45375000E+02,
                       4.36600000E+00]),
                NASA([1000.00, 4000.00],
                     [ 2.50000000E+00,  0.00000000E+00,  0.00000000E+00,
                       0.00000000E+00,  0.00000000E+00, -7.45375000E+02,
                       4.36600000E+00])),
        transport=gas_transport(geom='atom',
                                diam=3.33,
                                well_depth=136.5))

species(name=u'N2',
        atoms='N:2',
        thermo=(NASA([300.00, 1000.00],
                     [ 3.29867700E+00,  1.40823990E-03, -3.96322180E-06,
                       5.64151480E-09, -2.44485400E-12, -1.02090000E+03,
                       3.95037200E+00]),
                NASA([1000.00, 4000.00],
                     [ 2.92663788E+00,  1.48797700E-03, -5.68476030E-07,
                       1.00970400E-10, -6.75335090E-15, -9.22795384E+02,
                       5.98054018E+00])),
        transport=gas_transport(geom='linear',
                                diam=3.621,
                                well_depth=97.53,
                                polar=1.76,
                                rot_relax=4.0))

species(name=u'O2',
        atoms='O:2',
        thermo=(NASA([300.00, 1000.00],
                     [ 3.21293600E+00,  1.12748610E-03, -5.75614990E-07,
                       1.31387700E-09, -8.76855390E-13, -1.00524900E+03,
                       6.03473900E+00]),
                NASA([1000.00, 4000.00],
                     [ 3.69757685E+00,  6.13519690E-04, -1.25884200E-07,
                       1.77528100E-11, -1.13643500E-15, -1.23392966E+03,
                       3.18917125E+00])),
        transport=gas_transport(geom='linear',
                                diam=3.458,
                                well_depth=107.4,
                                polar=1.6,
                                rot_relax=3.8))

species(name=u'H2',
        atoms='H:2',
        thermo=(NASA([300.00, 1000.00],
                     [ 3.29812400E+00,  8.24944120E-04, -8.14301470E-07,
                      -9.47543430E-11,  4.13487200E-13, -1.01252100E+03,
                      -3.29409400E+00]),
                NASA([1000.00, 4000.00],
                     [ 2.99142220E+00,  7.00064410E-04, -5.63382800E-08,
                      -9.23157820E-12,  1.58275200E-15, -8.35033546E+02,
                      -1.35510641E+00])),
        transport=gas_transport(geom='linear',
                                diam=2.92,
                                well_depth=38.0,
                                polar=0.79,
                                rot_relax=280.0))

species(name=u'H2O',
        atoms='H:2 O:1',
        thermo=(NASA([300.00, 1000.00],
                     [ 3.38684200E+00,  3.47498200E-03, -6.35469590E-06,
                       6.96858040E-09, -2.50658800E-12, -3.02081100E+04,
                       2.59023200E+00]),
                NASA([1000.00, 4000.00],
                     [ 2.67214569E+00,  3.05629290E-03, -8.73026070E-07,
                       1.20099600E-10, -6.39161790E-15, -2.98992115E+04,
                       6.86281125E+00])),
        transport=gas_transport(geom='nonlinear',
                                diam=2.605,
                                well_depth=572.4,
                                dipole=1.844,
                                rot_relax=4.0))

species(name=u'H2O2',
        atoms='H:2 O:2',
        thermo=(NASA([300.00, 1000.00],
                     [ 3.38875300E+00,  6.56922580E-03, -1.48501200E-07,
                      -4.62580510E-09,  2.47151410E-12, -1.76631400E+04,
                       6.78536300E+00]),
                NASA([1000.00, 4000.00],
                     [ 4.57316594E+00,  4.33613590E-03, -1.47468900E-06,
                       2.34890300E-10, -1.43165410E-14, -1.80069531E+04,
                       5.01137915E-01])),
        transport=gas_transport(geom='nonlinear',
                                diam=3.458,
                                well_depth=107.4,
                                rot_relax=3.8))

species(name=u'CO',
        atoms='C:1 O:1',
        thermo=(NASA([300.00, 1000.00],
                     [ 3.26245100E+00,  1.51194100E-03, -3.88175520E-06,
                       5.58194380E-09, -2.47495100E-12, -1.43105400E+04,
                       4.84889700E+00]),
                NASA([1000.00, 4000.00],
                     [ 3.02507617E+00,  1.44268900E-03, -5.63082720E-07,
                       1.01858100E-10, -6.91095110E-15, -1.42683499E+04,
                       6.10822521E+00])),
        transport=gas_transport(geom='linear',
                                diam=3.65,
                                well_depth=98.1,
                                polar=1.95,
                                rot_relax=1.8))

species(name=u'CO2',
        atoms='C:1 O:2',
        thermo=(NASA([300.00, 1000.00],
                     [ 2.27572400E+00,  9.92207230E-03, -1.04091100E-05,
                       6.86668590E-09, -2.11728010E-12, -4.83731400E+04,
                       1.01884900E+01]),
                NASA([1000.00, 4000.00],
                     [ 4.45362582E+00,  3.14016800E-03, -1.27841100E-06,
                       2.39399610E-10, -1.66903300E-14, -4.89669524E+04,
                      -9.55420007E-01])),
        transport=gas_transport(geom='linear',
                                diam=3.763,
                                well_depth=244.0,
                                polar=2.65,
                                rot_relax=2.1))

species(name=u'CH2O',
        atoms='H:2 C:1 O:1',
        thermo=(NASA([300.00, 1000.00],
                     [ 1.65273100E+00,  1.26314400E-02, -1.88816790E-05,
                       2.05003110E-08, -8.41323710E-12, -1.48654000E+04,
                       1.37848200E+01]),
                NASA([1000.00, 4000.00],
                     [ 2.99560858E+00,  6.68132120E-03, -2.62895400E-06,
                       4.73715290E-10, -3.21251710E-14, -1.53203666E+04,
                       6.91256052E+00])),
        transport=gas_transport(geom='nonlinear',
                                diam=3.59,
                                well_depth=498.0,
                                rot_relax=2.0))

species(name=u'HCO3H',
        atoms='H:2 C:1 O:3',
        thermo=(NASA([300.00, 1378.00],
                     [ 2.42464726E+00,  2.19706380E-02, -1.68705546E-05,
                       6.25612194E-09, -9.11645843E-13, -3.54828006E+04,
                       1.75027796E+01]),
                NASA([1378.00, 4000.00],
                     [ 9.87503581E+00,  4.64663708E-03, -1.67230522E-06,
                       2.68624413E-10, -1.59595232E-14, -3.80502456E+04,
                      -2.24938942E+01])),
        transport=gas_transport(geom='nonlinear',
                                diam=4.12,
                                well_depth=443.2,
                                rot_relax=1.0))

species(name=u'CH4',
        atoms='H:4 C:1',
        thermo=(NASA([300.00, 1000.00],
                     [ 7.78741700E-01,  1.74766800E-02, -2.78340900E-05,
                       3.04970800E-08, -1.22393100E-11, -9.82522800E+03,
                       1.37221900E+01]),
                NASA([1000.00, 4000.00],
                     [ 1.68346564E+00,  1.02372400E-02, -3.87512820E-06,
                       6.78558490E-10, -4.50342310E-14, -1.00807773E+04,
                       9.62347575E+00])),
        transport=gas_transport(geom='nonlinear',
                                diam=3.746,
                                well_depth=141.4,
                                polar=2.6,
                                rot_relax=13.0))

species(name=u'CH3OH',
        atoms='H:4 C:1 O:1',
        thermo=(NASA([300.00, 1000.00],
                     [ 2.66011500E+00,  7.34150780E-03,  7.17005010E-06,
                      -8.79319370E-09,  2.39056990E-12, -2.53534800E+04,
                       1.12326300E+01]),
                NASA([1000.00, 4000.00],
                     [ 4.02907793E+00,  9.37659290E-03, -3.05025380E-06,
                       4.35879300E-10, -2.22472310E-14, -2.61579223E+04,
                       2.37808255E+00])),
        transport=gas_transport(geom='nonlinear',
                                diam=3.626,
                                well_depth=481.8,
                                rot_relax=1.0))

species(name=u'CH3OOH',
        atoms='H:4 C:1 O:2',
        thermo=(NASA([300.00, 1000.00],
                     [ 5.86865100E+00,  1.07942400E-02, -3.64552990E-06,
                       5.41291180E-10, -2.89684390E-14, -1.81268900E+04,
                      -2.51762300E+00]),
                NASA([1000.00, 4000.00],
                     [ 5.63694993E+00,  1.11814780E-02, -3.69593390E-06,
                       4.07189810E-10,  0.00000000E+00, -1.80442749E+04,
                      -1.24166637E+00])),
        transport=gas_transport(geom='nonlinear',
                                diam=3.626,
                                well_depth=481.8,
                                rot_relax=1.0))

species(name=u'C2H2',
        atoms='H:2 C:2',
        thermo=(NASA([300.00, 1000.00],
                     [ 2.01356200E+00,  1.51904500E-02, -1.61631910E-05,
                       9.07899180E-09, -1.91274600E-12,  2.61244400E+04,
                       8.80537800E+00]),
                NASA([1000.00, 4000.00],
                     [ 4.43677300E+00,  5.37603910E-03, -1.91281610E-06,
                       3.28637890E-10, -2.15670900E-14,  2.56676622E+04,
                      -2.80035722E+00])),
        transport=gas_transport(geom='linear',
                                diam=4.1,
                                well_depth=209.0,
                                rot_relax=2.5))

species(name=u'CH2CO',
        atoms='H:2 C:2 O:1',
        thermo=(NASA([300.00, 1000.00],
                     [ 2.97497100E+00,  1.21187100E-02, -2.34504600E-06,
                      -6.46668500E-09,  3.90564900E-12, -7.63263700E+03,
                       8.67355300E+00]),
                NASA([1000.00, 4000.00],
                     [ 6.03885318E+00,  5.80484000E-03, -1.92095400E-06,
                       2.79448500E-10, -1.45886800E-14, -8.58343402E+03,
                      -7.65782305E+00])),
        transport=gas_transport(geom='nonlinear',
                                diam=3.97,
                                well_depth=436.0,
                                rot_relax=2.0))

species(name=u'C2H4',
        atoms='H:4 C:2',
        thermo=(NASA([300.00, 1000.00],
                     [-8.61487900E-01,  2.79616190E-02, -3.38867690E-05,
                       2.78515200E-08, -9.73787890E-12,  5.57304700E+03,
                       2.42114800E+01]),
                NASA([1000.00, 4000.00],
                     [ 3.52841648E+00,  1.14851800E-02, -4.41838480E-06,
                       7.84460000E-10, -5.26684780E-14,  4.42829030E+03,
                       2.23039249E+00])),
        transport=gas_transport(geom='nonlinear',
                                diam=3.971,
                                well_depth=280.8,
                                rot_relax=1.5))

species(name=u'C2H4O',
        atoms='H:4 C:2 O:1',
        thermo=(NASA([300.00, 1000.00],
                     [-1.30385500E+00,  2.82461720E-02, -1.70593430E-05,
                       3.94753470E-09,  0.00000000E+00, -7.07559900E+03,
                       2.89352600E+01]),
                NASA([1000.00, 4000.00],
                     [ 3.85543260E+00,  1.46081760E-02, -5.26121540E-06,
                       6.28115500E-10,  0.00000000E+00, -8.51874300E+03,
                       2.14156911E+00])),
        transport=gas_transport(geom='nonlinear',
                                diam=4.53,
                                well_depth=362.6,
                                rot_relax=1.5))

species(name=u'CH3CHO',
        atoms='H:4 C:2 O:1',
        thermo=(NASA([300.00, 1000.00],
                     [ 2.50569500E+00,  1.33699100E-02,  4.67195290E-06,
                      -1.12814000E-08,  4.26356610E-12, -2.12458800E+04,
                       1.33508900E+01]),
                NASA([1000.00, 4000.00],
                     [ 5.86869116E+00,  1.07942400E-02, -3.64552990E-06,
                       5.41291180E-10, -2.89684390E-14, -2.26457128E+04,
                      -6.01321650E+00])),
        transport=gas_transport(geom='nonlinear',
                                diam=3.97,
                                well_depth=436.0,
                                rot_relax=2.0))

species(name=u'C2-OQOOH',
        atoms='H:4 C:2 O:3',
        thermo=(NASA([300.00, 1380.00],
                     [ 5.52382546E+00,  2.42068306E-02, -1.52898974E-05,
                       5.01728362E-09, -6.96406358E-13, -3.23406789E+04,
                       3.57240645E+00]),
                NASA([1380.00, 4000.00],
                     [ 1.24064339E+01,  9.47233784E-03, -3.28107928E-06,
                       5.13772211E-10, -2.99872803E-14, -3.49123142E+04,
                      -3.39479874E+01])),
        transport=gas_transport(geom='nonlinear',
                                diam=4.41,
                                well_depth=470.6,
                                rot_relax=1.5))

species(name=u'CH3CO3H',
        atoms='H:4 C:2 O:3',
        thermo=(NASA([300.00, 1000.00],
                     [ 4.84746000E+00,  2.18580610E-02, -9.04284660E-06,
                       3.84145300E-10,  0.00000000E+00, -4.29209100E+04,
                       6.74072600E+00]),
                NASA([1000.00, 4000.00],
                     [ 1.14777196E+01,  8.31667150E-03, -1.85084560E-06,
                       1.03274160E-10,  0.00000000E+00, -4.51075908E+04,
                      -2.90204723E+01])),
        transport=gas_transport(geom='nonlinear',
                                diam=4.12,
                                well_depth=443.2,
                                rot_relax=1.0))

species(name=u'C2H6',
        atoms='H:6 C:2',
        thermo=(NASA([300.00, 1000.00],
                     [ 1.46253900E+00,  1.54946700E-02,  5.78050690E-06,
                      -1.25783200E-08,  4.58626710E-12, -1.12391800E+04,
                       1.44322900E+01]),
                NASA([1000.00, 4000.00],
                     [ 4.82597579E+00,  1.38404300E-02, -4.55725790E-06,
                       6.72496720E-10, -3.59816110E-14, -1.27178296E+04,
                      -5.23976258E+00])),
        transport=gas_transport(geom='nonlinear',
                                diam=4.302,
                                well_depth=252.3,
                                rot_relax=1.5))

species(name=u'C2H5OOH',
        atoms='H:6 C:2 O:2',
        thermo=(NASA([300.00, 1000.00],
                     [ 2.23998300E+00,  3.10914290E-02, -1.70933710E-05,
                       3.29379790E-09,  0.00000000E+00, -2.16018500E+04,
                       1.58174300E+01]),
                NASA([1000.00, 4000.00],
                     [ 9.14611907E+00,  1.44611400E-02, -4.55120020E-06,
                       4.75780030E-10,  0.00000000E+00, -2.36690607E+04,
                      -2.05899250E+01])),
        transport=gas_transport(geom='nonlinear',
                                diam=4.53,
                                well_depth=362.6,
                                rot_relax=1.5))

species(name=u'AC3H4',
        atoms='H:4 C:3',
        thermo=(NASA([300.00, 1400.07],
                     [ 2.53983090E+00,  1.63343700E-02, -1.76495000E-06,
                      -4.64736520E-09,  1.72913110E-12,  2.25124300E+04,
                       9.93570230E+00]),
                NASA([1400.07, 4000.00],
                     [ 9.77625145E+00,  5.30213820E-03, -3.70111790E-07,
                      -3.02638610E-10,  5.08958110E-14,  1.95497314E+04,
                      -3.07705909E+01])),
        transport=gas_transport(geom='linear',
                                diam=4.76,
                                well_depth=252.0))

species(name=u'PC3H4',
        atoms='H:4 C:3',
        thermo=(NASA([300.00, 1000.00],
                     [ 1.46175323E+00,  2.46026602E-02, -1.90219395E-05,
                       8.60363422E-09, -1.66729240E-12,  2.09209793E+04,
                       1.49262585E+01]),
                NASA([1000.00, 4000.00],
                     [ 2.81460543E+00,  1.85524496E-02, -9.55026768E-06,
                       2.39951370E-09, -2.37485257E-13,  2.07010771E+04,
                       8.60604972E+00])),
        transport=gas_transport(geom='linear',
                                diam=4.76,
                                well_depth=252.0,
                                rot_relax=1.0))

species(name=u'C2H3CHO',
        atoms='H:4 C:3 O:1',
        thermo=(NASA([300.00, 1393.00],
                     [ 2.92355162E-01,  3.54321417E-02, -2.94936324E-05,
                       1.28100124E-08, -2.26144108E-12, -1.16521584E+04,
                       2.28878280E+01]),
                NASA([1393.00, 4000.00],
                     [ 1.04184607E+01,  9.48963321E-03, -3.29310529E-06,
                       5.16279203E-10, -3.01587291E-14, -1.49629790E+04,
                      -3.07232511E+01])),
        transport=gas_transport(geom='nonlinear',
                                diam=4.12,
                                well_depth=443.2,
                                rot_relax=1.0))

species(name=u'C3H6',
        atoms='H:6 C:3',
        thermo=(NASA([300.00, 1000.00],
                     [ 1.49330700E+00,  2.09251700E-02,  4.48679380E-06,
                      -1.66891190E-08,  7.15814600E-12,  1.07482600E+03,
                       1.61453400E+01]),
                NASA([1000.00, 4000.00],
                     [ 6.73231663E+00,  1.49083400E-02, -4.94989900E-06,
                       7.21202210E-10, -3.76620390E-14, -9.23623057E+02,
                      -1.33137684E+01])),
        transport=gas_transport(geom='nonlinear',
                                diam=4.14,
                                well_depth=307.8,
                                rot_relax=1.0))

species(name=u'C3H5OH',
        atoms='H:6 C:3 O:1',
        thermo=(NASA([300.00, 1000.00],
                     [ 3.32545570E+00,  2.51539630E-02, -1.63055650E-05,
                       1.21609030E-08, -5.00807290E-12, -1.74250940E+04,
                       1.39104030E+01]),
                NASA([1000.00, 4000.00],
                     [ 6.65875100E+00,  1.79008100E-02, -6.12801520E-06,
                       9.83706560E-10, -6.09475850E-14, -1.87194550E+04,
                      -4.46185680E+00])),
        transport=gas_transport(geom='nonlinear',
                                diam=4.82,
                                well_depth=411.0,
                                rot_relax=1.0))

species(name=u'C2H5CHO',
        atoms='H:6 C:3 O:1',
        thermo=(NASA([300.00, 1379.00],
                     [ 4.41647615E+00,  1.59069417E-02,  9.90305472E-06,
                      -1.19062354E-08,  2.90135824E-12, -2.49124705E+04,
                       6.42168604E+00]),
                NASA([1379.00, 4000.00],
                     [ 8.72954858E+00,  1.99253945E-02, -7.85642340E-06,
                       1.32736406E-09, -8.12865962E-14, -2.81462888E+04,
                      -2.22846545E+01])),
        transport=gas_transport(geom='nonlinear',
                                diam=4.82,
                                well_depth=411.0,
                                rot_relax=1.0))

species(name=u'C3H6O2',
        atoms='H:6 C:3 O:2',
        thermo=(NASA([300.00, 1382.00],
                     [ 2.66613285E+00,  3.46302298E-02, -2.14380719E-05,
                       6.90469334E-09, -9.16939105E-13, -4.25706030E+04,
                       1.73358364E+01]),
                NASA([1382.00, 4000.00],
                     [ 1.18936666E+01,  1.44153203E-02, -4.77525443E-06,
                       7.26036430E-10, -4.15285995E-14, -4.59271652E+04,
                      -3.27285750E+01])),
        transport=gas_transport(geom='nonlinear',
                                diam=5.339,
                                well_depth=503.072,
                                dipole=1.67,
                                polar=7.016,
                                rot_relax=1.0))

species(name=u'C4H4',
        atoms='H:4 C:4',
        thermo=(NASA([300.00, 1000.00],
                     [-1.91524700E+00,  5.27508700E-02, -7.16559400E-05,
                       5.50724200E-08, -1.72862200E-11,  3.29785000E+04,
                       3.14199800E+01]),
                NASA([1000.00, 4000.00],
                     [ 6.65080310E+00,  1.61294300E-02, -7.19388700E-06,
                       1.49817800E-09, -1.18641100E-13,  3.11958636E+04,
                      -9.79559836E+00])),
        transport=gas_transport(geom='nonlinear',
                                diam=5.18,
                                well_depth=357.0,
                                rot_relax=1.0))

species(name=u'C4H6',
        atoms='H:6 C:4',
        thermo=(NASA([300.00, 1000.00],
                     [ 1.12443850E-01,  3.43711770E-02, -1.11106630E-05,
                      -9.21096660E-09,  6.20841700E-12,  1.18022620E+04,
                       2.30917180E+01]),
                NASA([1000.00, 4000.00],
                     [ 8.23794980E+00,  1.73695890E-02, -6.15923200E-06,
                       9.79908060E-10, -5.78075590E-14,  9.23259930E+03,
                      -2.03418190E+01])),
        transport=gas_transport(geom='nonlinear',
                                diam=5.18,
                                well_depth=357.0,
                                rot_relax=1.0))

species(name=u'C3H5CHO',
        atoms='H:6 C:4 O:1',
        thermo=(NASA([300.00, 1394.00],
                     [-2.27554121E-02,  4.41176181E-02, -3.22046234E-05,
                       1.24986163E-08, -2.02269249E-12, -1.14618192E+04,
                       2.88193193E+01]),
                NASA([1394.00, 4000.00],
                     [ 1.21670926E+01,  1.50749706E-02, -5.18640017E-06,
                       8.08302587E-10, -4.70194864E-14, -1.56762389E+04,
                      -3.65095664E+01])),
        transport=gas_transport(geom='nonlinear',
                                diam=5.642,
                                well_depth=332.713,
                                rot_relax=1.0))

species(name=u'IC3H5CHO',
        atoms='H:6 C:4 O:1',
        thermo=(NASA([300.00, 1396.00],
                     [ 6.27183793E-01,  4.66780254E-02, -3.74430631E-05,
                       1.58330542E-08, -2.73952155E-12, -1.57203117E+04,
                       2.16034294E+01]),
                NASA([1396.00, 4000.00],
                     [ 1.36175682E+01,  1.37917192E-02, -4.73370118E-06,
                       7.36655226E-10, -4.20097974E-14, -1.99994281E+04,
                      -4.72987367E+01])),
        transport=gas_transport(geom='nonlinear',
                                diam=5.18,
                                well_depth=357.0,
                                rot_relax=1.0))

species(name=u'MACRIL',
        atoms='H:6 C:4 O:2',
        thermo=(NASA([300.00, 1000.00],
                     [-9.29250120E-01,  5.65245670E-02, -5.31143270E-05,
                       2.63405850E-08, -4.84636380E-12, -3.90243280E+04,
                       3.47643170E+01]),
                NASA([1000.00, 4000.00],
                     [ 9.62595080E+00,  2.02069860E-02, -6.84948550E-06,
                       1.09063620E-09, -6.71284990E-14, -4.14857110E+04,
                      -1.77414250E+01])),
        transport=gas_transport(geom='nonlinear',
                                diam=5.833,
                                well_depth=430.1,
                                rot_relax=1.0))

species(name=u'NC4H8',
        atoms='H:8 C:4',
        thermo=(NASA([300.00, 1000.00],
                     [ 1.18113800E+00,  3.08533800E-02,  5.08652470E-06,
                      -2.46548880E-08,  1.11101930E-11, -1.79040040E+03,
                       2.10624690E+01]),
                NASA([1000.00, 4000.00],
                     [ 2.05358410E+00,  3.43505070E-02, -1.58831970E-05,
                       3.30896620E-09, -2.53610450E-13, -2.13972310E+03,
                       1.55432010E+01])),
        transport=gas_transport(geom='nonlinear',
                                diam=4.65,
                                well_depth=355.0,
                                rot_relax=1.0))

species(name=u'C4H7OH',
        atoms='H:8 C:4 O:1',
        thermo=(NASA([300.00, 1000.00],
                     [ 1.73864090E+00,  3.69849060E-02, -6.80297030E-06,
                      -1.28647340E-08,  6.62652570E-12, -2.09184180E+04,
                       2.07395880E+01]),
                NASA([1000.00, 4000.00],
                     [ 8.63167950E+00,  2.41150480E-02, -8.32957180E-06,
                       1.34433130E-09, -8.35340300E-14, -2.30779140E+04,
                      -1.63015210E+01])),
        transport=gas_transport(geom='nonlinear',
                                diam=5.339941638,
                                well_depth=503.0722524,
                                dipole=1.67,
                                polar=8.88,
                                rot_relax=1.0))

species(name=u'C3H7CHO',
        atoms='H:8 C:4 O:1',
        thermo=(NASA([300.00, 1460.00],
                     [ 2.69734263E+00,  3.47742121E-02, -1.45911329E-06,
                      -1.17722414E-08,  3.92653613E-12, -2.76350928E+04,
                       1.58339562E+01]),
                NASA([1460.00, 4000.00],
                     [ 1.77916692E+01,  1.60697035E-02, -5.78626200E-06,
                       9.29729307E-10, -5.52476040E-14, -3.43943030E+04,
                      -7.08794705E+01])),
        transport=gas_transport(geom='nonlinear',
                                diam=5.339941638,
                                well_depth=503.0722524,
                                dipole=1.67,
                                polar=8.88,
                                rot_relax=1.0))

species(name=u'CYC5H6',
        atoms='H:6 C:5',
        thermo=(NASA([300.00, 1000.00],
                     [-5.13691194E+00,  6.06953453E-02, -4.60552837E-05,
                       1.28457201E-08,  7.41214852E-13,  1.53675713E+04,
                       4.61567559E+01]),
                NASA([1000.00, 4000.00],
                     [ 2.30537462E-01,  4.09571826E-02, -2.41588958E-05,
                       6.79763480E-09, -7.36374421E-13,  1.43779465E+04,
                       2.02551234E+01])),
        transport=gas_transport(geom='nonlinear',
                                diam=5.2,
                                well_depth=408.0,
                                rot_relax=1.0))

species(name=u'C5H8',
        atoms='H:8 C:5',
        thermo=(NASA([300.00, 1000.00],
                     [ 1.76636500E+00,  4.32678800E-02, -2.37613290E-05,
                       5.12588110E-09,  0.00000000E+00,  6.84030700E+03,
                       1.37180600E+01]),
                NASA([1000.00, 4000.00],