"""
****************************************************************************
 A 188-species skeletal mechanism for n-heptane oxidation

 References:

 1. Lu T.F., and Law C.K.,
    Diffusion Coefficient Reduction through Species Bundling,
    Combustion and Flame, 148(3) 117-126, 2007.

 2. Yoo C.S., Lu T.F., Chen J.H. and Law C.K.,
    Direct numerical simulations of ignition of a lean n-heptane/air mixture
     with temperature inhomogeneities at constant volume: parametric study,
    Combustion and Flame, doi:10.1016/j.combustflame.2011.01.025, 2011.

****************************************************************************


"""

units(length='cm', time='s', quantity='mol', act_energy='cal/mol')

ideal_gas(name='gas',
          elements="H C O N Ar",
          species="""h              h2             o
                     o2             oh             h2o
                     n2             co             hco
                     co2            ch3            ch4
                     ho2            h2o2           ch2o
                     ch3o           c2h6           c2h4
                     c2h5           ch2            ch
                     c2h            c2h2           c2h3
                     ch3oh          ch2oh          ch2co
                     hcco           pc2h4oh        sc2h4oh
                     ch3co          ch2cho         ch3cho
                     c3h4-a         c3h4-p         c3h6
                     c4h6           nc3h7          ic3h7
                     ic4h7          ic4h8          c4h7
                     c4h8-2         c4h8-1         pc4h9
                     ch3coch3       ch3coch2       c2h5cho
                     c2h5co         c5h9           c5h10-1
                     c5h10-2        bc5h11         ac5h10
                     bc5h10         ic5h9          c5h11-1
                     c5h11-2        c2h5o          ch3o2
                     c2h5o2         ch3o2h         c2h5o2h
                     c2h3o1-2       ch3co2         c2h4o2h
                     o2c2h4oh       ch3co3         ch3co3h
                     c2h3co         c2h3cho        c3h5o
                     c3h6ooh1-2     nc3h7o         nc3h7o2h
                     nc3h7o2        ic4h8oh        c4h7o
                     c4h8ooh1-3o2   c4h8ooh1-3     c4h8o1-3
                     pc4h9o         pc4h9o2h       pc4h9o2
                     ch3coch2o2     ch3coch2o2h    ch3coch2o
                     c5h11o2-1      c5h11o2h-1     c5h11o-1
                     c5h10ooh1-3    c5h10ooh1-4    c5h10ooh1-3o2
                     c5h10o1-4      c3h5-a         c3h5-t
                     c3h3           c3h2           ch2(s)
                     nc4ket13       nc5ket13       ic3h5cho
                     tc3h6cho       ic4h7oh        ic3h6co
                     ic3h5co        tc3h6oh        ic3h5oh
                     nc3h7cho       nc3h7co        ch2ch2coch3
                     c2h5coch2      c2h5coch3      ch3chcoch3
                     c2h3coch3      ch3chco        c3h6cho-3
                     c3h6cho-2      c2h5chco       ch3chcho
                     c2h5coc2h4p    c2h5coc2h3     pc2h4coc2h3
                     ic3h6chcoch2   nc3h7coch3     nc3h7coch2
                     nc4h9cho       nc4h9co        ac3h5cho
                     c2h3chcho      hoch2o         hocho
                     c6h13-1        c6h13-2        c6h12-1
                     c6h11          nc7h16         c7h15-1
                     c7h15-2        c7h15-3        c7h15-4
                     c7h14-1        c7h14-2        c7h14-3
                     c7h13          c7h15o2-1      c7h15o2-2
                     c7h15o2-3      c7h15o2-4      c7h15o2h-2
                     c7h15o-2       c7h15o-3       c7h15o-4
                     c7h14ooh1-3    c7h14ooh2-3    c7h14ooh2-4
                     c7h14ooh2-5    c7h14ooh3-1    c7h14ooh3-2
                     c7h14ooh3-4    c7h14ooh3-5    c7h14ooh3-6
                     c7h14ooh4-2    c7h14ooh4-3    c7h14ooh1-3o2
                     c7h14ooh2-3o2  c7h14ooh2-4o2  c7h14ooh2-5o2
                     c7h14ooh3-5o2  c7h14ooh3-6o2  c7h14ooh4-2o2
                     c7h14o1-2      c7h14o1-3      c7h14o1-4
                     c7h14o2-3      c7h14o2-4      c7h14o2-5
                     c7h14o3-4      c7h14o3-5      nc7ket13
                     nc7ket23       nc7ket24       nc7ket25
                     nc7ket35       nc7ket36       nc7ket42
                     nc5h11cho      nc5h11co""",
          reactions='all',
          transport='Mix',
          initial_state=state(temperature=300.0, pressure=OneAtm))

#-------------------------------------------------------------------------------
# Species data
#-------------------------------------------------------------------------------

species(name=u'h',
        atoms='H:1',
        thermo=(NASA([300.00, 1000.00],
                     [ 2.50104422E+00,  0.00000000E+00,  0.00000000E+00,
                       0.00000000E+00,  0.00000000E+00,  2.54747466E+04,
                      -4.65341317E-01]),
                NASA([1000.00, 5000.00],
                     [ 2.50104422E+00,  0.00000000E+00,  0.00000000E+00,
                       0.00000000E+00,  0.00000000E+00,  2.54747466E+04,
                      -4.65341317E-01])),
        transport=gas_transport(geom='atom',
                                diam=2.05,
                                well_depth=145.0),
        note=u'8/12/99therm')

species(name=u'h2',
        atoms='H:2',
        thermo=(NASA([300.00, 1000.00],
                     [ 3.29812400E+00,  8.24944200E-04, -8.14301500E-07,
                      -9.47543400E-11,  4.13487200E-13, -1.01252100E+03,
                      -3.29409400E+00]),
                NASA([1000.00, 5000.00],
                     [ 2.99142300E+00,  7.00064400E-04, -5.63382900E-08,
                      -9.23157800E-12,  1.58275200E-15, -8.35034000E+02,
                      -1.35511000E+00])),
        transport=gas_transport(geom='linear',
                                diam=2.92,
                                well_depth=38.0,
                                polar=0.79,
                                rot_relax=280.0),
        note=u'121286')

species(name=u'o',
        atoms='O:1',
        thermo=(NASA([300.00, 1000.00],
                     [ 2.94642900E+00, -1.63816600E-03,  2.42103200E-06,
                      -1.60284300E-09,  3.89069600E-13,  2.91476400E+04,
                       2.96399500E+00]),
                NASA([1000.00, 5000.00],
                     [ 2.54206000E+00, -2.75506200E-05, -3.10280300E-09,
                       4.55106700E-12, -4.36805200E-16,  2.92308000E+04,
                       4.92030800E+00])),
        transport=gas_transport(geom='atom',
                                diam=2.75,
                                well_depth=80.0),
        note=u'120186')

species(name=u'o2',
        atoms='O:2',
        thermo=(NASA([300.00, 1000.00],
                     [ 3.21293600E+00,  1.12748600E-03, -5.75615000E-07,
                       1.31387700E-09, -8.76855400E-13, -1.00524900E+03,
                       6.03473800E+00]),
                NASA([1000.00, 5000.00],
                     [ 3.69757800E+00,  6.13519700E-04, -1.25884200E-07,
                       1.77528100E-11, -1.13643500E-15, -1.23393000E+03,
                       3.18916600E+00])),
        transport=gas_transport(geom='linear',
                                diam=3.458,
                                well_depth=107.4,
                                polar=1.6,
                                rot_relax=3.8),
        note=u'121386')

species(name=u'oh',
        atoms='H:1 O:1',
        thermo=(NASA([300.00, 1357.00],
                     [ 3.43586219E+00,  2.02235804E-04, -1.13546412E-07,
                       2.42445149E-10, -7.43651031E-14,  3.74321252E+03,
                       2.45014127E+00]),
                NASA([1357.00, 5000.00],
                     [ 2.62599754E+00,  1.31992406E-03, -3.59724670E-07,
                       4.25630800E-11, -1.82048016E-15,  4.12085374E+03,
                       7.10667307E+00])),
        transport=gas_transport(geom='linear',
                                diam=2.75,
                                well_depth=80.0),
        note=u'8/12/99therm')

species(name=u'h2o',
        atoms='H:2 O:1',
        thermo=(NASA([300.00, 1000.00],
                     [ 3.38684200E+00,  3.47498200E-03, -6.35469600E-06,
                       6.96858100E-09, -2.50658800E-12, -3.02081100E+04,
                       2.59023300E+00]),
                NASA([1000.00, 5000.00],
                     [ 2.67214600E+00,  3.05629300E-03, -8.73026000E-07,
                       1.20099600E-10, -6.39161800E-15, -2.98992100E+04,
                       6.86281700E+00])),
        transport=gas_transport(geom='nonlinear',
                                diam=2.605,
                                well_depth=572.4,
                                dipole=1.844,
                                rot_relax=4.0),
        note=u'20387')

species(name=u'n2',
        atoms='N:2',
        thermo=(NASA([300.00, 1000.00],
                     [ 3.29867700E+00,  1.40824000E-03, -3.96322200E-06,
                       5.64151500E-09, -2.44485500E-12, -1.02090000E+03,
                       3.95037200E+00]),
                NASA([1000.00, 5000.00],
                     [ 2.92664000E+00,  1.48797700E-03, -5.68476100E-07,
                       1.00970400E-10, -6.75335100E-15, -9.22797700E+02,
                       5.98052800E+00])),
        transport=gas_transport(geom='linear',
                                diam=3.621,
                                well_depth=97.53,
                                polar=1.76,
                                rot_relax=4.0),
        note=u'121286')

species(name=u'co',
        atoms='C:1 O:1',
        thermo=(NASA([300.00, 1000.00],
                     [ 3.26245200E+00,  1.51194100E-03, -3.88175500E-06,
                       5.58194400E-09, -2.47495100E-12, -1.43105400E+04,
                       4.84889700E+00]),
                NASA([1000.00, 5000.00],
                     [ 3.02507800E+00,  1.44268900E-03, -5.63082800E-07,
                       1.01858100E-10, -6.91095200E-15, -1.42683500E+04,
                       6.10821800E+00])),
        transport=gas_transport(geom='linear',
                                diam=3.65,
                                well_depth=98.1,
                                polar=1.95,
                                rot_relax=1.8),
        note=u'121286')

species(name=u'hco',
        atoms='H:1 C:1 O:1',
        thermo=(NASA([300.00, 1000.00],
                     [ 2.89833000E+00,  6.19914700E-03, -9.62308400E-06,
                       1.08982500E-08, -4.57488500E-12,  4.15992200E+03,
                       8.98361400E+00]),
                NASA([1000.00, 5000.00],
                     [ 3.55727100E+00,  3.34557300E-03, -1.33500600E-06,
                       2.47057300E-10, -1.71385100E-14,  3.91632400E+03,
                       5.55229900E+00])),
        transport=gas_transport(geom='nonlinear',
                                diam=3.59,
                                well_depth=498.0),
        note=u'121286')

species(name=u'co2',
        atoms='C:1 O:2',
        thermo=(NASA([300.00, 1000.00],
                     [ 2.27572500E+00,  9.92207200E-03, -1.04091100E-05,
                       6.86668700E-09, -2.11728000E-12, -4.83731400E+04,
                       1.01884900E+01]),
                NASA([1000.00, 5000.00],
                     [ 4.45362300E+00,  3.14016900E-03, -1.27841100E-06,
                       2.39399700E-10, -1.66903300E-14, -4.89669600E+04,
                      -9.55395900E-01])),
        transport=gas_transport(geom='linear',
                                diam=3.763,
                                well_depth=244.0,
                                polar=2.65,
                                rot_relax=2.1),
        note=u'121286')

species(name=u'ch3',
        atoms='H:3 C:1',
        thermo=(NASA([300.00, 1000.00],
                     [ 2.43044300E+00,  1.11241000E-02, -1.68022000E-05,
                       1.62182900E-08, -5.86495300E-12,  1.64237800E+04,
                       6.78979400E+00]),
                NASA([1000.00, 5000.00],
                     [ 2.84405200E+00,  6.13797400E-03, -2.23034500E-06,
                       3.78516100E-10, -2.45215900E-14,  1.64378100E+04,
                       5.45269700E+00])),
        transport=gas_transport(geom='linear',
                                diam=3.8,
                                well_depth=144.0),
        note=u'121286')

species(name=u'ch4',
        atoms='H:4 C:1',
        thermo=(NASA([300.00, 1000.00],
                     [ 7.78741500E-01,  1.74766800E-02, -2.78340900E-05,
                       3.04970800E-08, -1.22393100E-11, -9.82522900E+03,
                       1.37221900E+01]),
                NASA([1000.00, 5000.00],
                     [ 1.68347900E+00,  1.02372400E-02, -3.87512900E-06,
                       6.78558500E-10, -4.50342300E-14, -1.00807900E+04,
                       9.62339500E+00])),
        transport=gas_transport(geom='nonlinear',
                                diam=3.746,
                                well_depth=141.4,
                                polar=2.6,
                                rot_relax=13.0),
        note=u'121286')

species(name=u'ho2',
        atoms='H:1 O:2',
        thermo=(NASA([300.00, 1390.00],
                     [ 3.18310656E+00,  3.66767950E-03, -9.32385122E-07,
                      -3.25852919E-10,  1.51139912E-13,  8.09181013E+02,
                       8.39371099E+00]),
                NASA([1390.00, 5000.00],
                     [ 4.10547423E+00,  2.38452835E-03, -8.06347989E-07,
                       1.24191723E-10, -7.16400108E-15,  3.98127689E+02,
                       3.12515836E+00])),
        transport=gas_transport(geom='nonlinear',
                                diam=3.458,
                                well_depth=107.4,
                                rot_relax=1.0),
        note=u'8/12/99therm')

species(name=u'h2o2',
        atoms='H:2 O:2',
        thermo=(NASA([300.00, 1000.00],
                     [ 3.38875400E+00,  6.56922600E-03, -1.48501300E-07,
                      -4.62580600E-09,  2.47151500E-12, -1.76631500E+04,
                       6.78536300E+00]),
                NASA([1000.00, 5000.00],
                     [ 4.57316700E+00,  4.33613600E-03, -1.47468900E-06,
                       2.34890400E-10, -1.43165400E-14, -1.80069600E+04,
                       5.01137000E-01])),
        transport=gas_transport(geom='nonlinear',
                                diam=3.458,
                                well_depth=107.4,
                                rot_relax=3.8),
        note=u'120186')

species(name=u'ch2o',
        atoms='H:2 C:1 O:1',
        thermo=(NASA([300.00, 1000.00],
                     [ 1.65273100E+00,  1.26314400E-02, -1.88816800E-05,
                       2.05003100E-08, -8.41323700E-12, -1.48654000E+04,
                       1.37848200E+01]),
                NASA([1000.00, 5000.00],
                     [ 2.99560600E+00,  6.68132100E-03, -2.62895500E-06,
                       4.73715300E-10, -3.21251700E-14, -1.53203700E+04,
                       6.91257200E+00])),
        transport=gas_transport(geom='nonlinear',
                                diam=3.59,
                                well_depth=498.0,
                                rot_relax=2.0),
        note=u'121286')

species(name=u'ch3o',
        atoms='H:3 C:1 O:1',
        thermo=(NASA([300.00, 1000.00],
                     [ 2.10620400E+00,  7.21659500E-03,  5.33847200E-06,
                      -7.37763600E-09,  2.07561100E-12,  9.78601100E+02,
                       1.31521800E+01]),
                NASA([1000.00, 3000.00],
                     [ 3.77080000E+00,  7.87149700E-03, -2.65638400E-06,
                       3.94443100E-10, -2.11261600E-14,  1.27832500E+02,
                       2.92957500E+00])),
        transport=gas_transport(geom='nonlinear',
                                diam=3.69,
                                well_depth=417.0,
                                dipole=1.7,
                                rot_relax=2.0),
        note=u'121686')

species(name=u'c2h6',
        atoms='H:6 C:2',
        thermo=(NASA([300.00, 1384.00],
                     [-2.52854344E-02,  2.40764754E-02, -1.11893472E-05,
                       2.08340901E-09, -5.29868616E-14, -1.12345534E+04,
                       2.11648750E+01]),
                NASA([1384.00, 5000.00],
                     [ 6.10683385E+00,  1.29236361E-02, -4.42527196E-06,
                       6.87391726E-10, -3.98901732E-14, -1.37500014E+04,
                      -1.30081250E+01])),
        transport=gas_transport(geom='nonlinear',
                                diam=4.35,
                                well_depth=247.5,
                                rot_relax=1.5),
        note=u'1/14/95therm')

species(name=u'c2h4',
        atoms='H:4 C:2',
        thermo=(NASA([300.00, 1000.00],
                     [-8.61488000E-01,  2.79616300E-02, -3.38867700E-05,
                       2.78515200E-08, -9.73787900E-12,  5.57304600E+03,
                       2.42114900E+01]),
                NASA([1000.00, 5000.00],
                     [ 3.52841900E+00,  1.14851800E-02, -4.41838500E-06,
                       7.84460100E-10, -5.26684800E-14,  4.42828900E+03,
                       2.23038900E+00])),
        transport=gas_transport(geom='nonlinear',
                                diam=3.496,
                                well_depth=238.4,
                                rot_relax=1.5),
        note=u'121286')

species(name=u'c2h5',
        atoms='H:5 C:2',
        thermo=(NASA([300.00, 1000.00],
                     [ 2.69070200E+00,  8.71913300E-03,  4.41983900E-06,
                       9.33870300E-10, -3.92777300E-12,  1.28704000E+04,
                       1.21382000E+01]),
                NASA([1000.00, 5000.00],
                     [ 7.19048000E+00,  6.48407700E-03, -6.42806500E-07,
                      -2.34787900E-10,  3.88087700E-14,  1.06745500E+04,
                      -1.47808900E+01])),
        transport=gas_transport(geom='nonlinear',
                                diam=4.35,
                                well_depth=247.5,
                                rot_relax=1.5),
        note=u'12387')

species(name=u'ch2',
        atoms='H:2 C:1',
        thermo=(NASA([250.00, 1000.00],
                     [ 3.76223700E+00,  1.15981900E-03,  2.48958500E-07,
                       8.80083600E-10, -7.33243500E-13,  4.53679100E+04,
                       1.71257800E+00]),
                NASA([1000.00, 4000.00],
                     [ 3.63640800E+00,  1.93305700E-03, -1.68701600E-07,
                      -1.00989900E-10,  1.80825600E-14,  4.53413400E+04,
                       2.15656100E+00])),
        transport=gas_transport(geom='linear',
                                diam=3.8,
                                well_depth=144.0),
        note=u'120186')

species(name=u'ch',
        atoms='H:1 C:1',
        thermo=(NASA([300.00, 1000.00],
                     [ 3.20020200E+00,  2.07287600E-03, -5.13443100E-06,
                       5.73389000E-09, -1.95553300E-12,  7.04525900E+04,
                       3.33158800E+00]),
                NASA([1000.00, 5000.00],
                     [ 2.19622300E+00,  2.34038100E-03, -7.05820100E-07,
                       9.00758200E-11, -3.85504000E-15,  7.08672300E+04,
                       9.17837300E+00])),
        transport=gas_transport(geom='linear',
                                diam=2.75,
                                well_depth=80.0),
        note=u'121286')

species(name=u'c2h',
        atoms='H:1 C:2',
        thermo=(NASA([300.00, 1000.00],
                     [ 2.73770400E+00,  8.04844600E-03, -9.24431000E-06,
                       6.52525900E-09, -1.93958000E-12,  6.68381300E+04,
                       7.30022000E+00]),
                NASA([1000.00, 4000.00],
                     [ 3.98636700E+00,  3.14312300E-03, -1.26724300E-06,
                       2.92436300E-10, -2.71632000E-14,  6.65588400E+04,
                       1.19106300E+00])),
        transport=gas_transport(geom='linear',
                                diam=3.721,
                                well_depth=265.3,
                                rot_relax=2.5),
        note=u'81193')

species(name=u'c2h2',
        atoms='H:2 C:2',
        thermo=(NASA([300.00, 1000.00],
                     [ 2.01356200E+00,  1.51904500E-02, -1.61631900E-05,
                       9.07899200E-09, -1.91274600E-12,  2.61244400E+04,
                       8.80537800E+00]),
                NASA([1000.00, 5000.00],
                     [ 4.43677000E+00,  5.37603900E-03, -1.91281700E-06,
                       3.28637900E-10, -2.15671000E-14,  2.56676600E+04,
                      -2.80033800E+00])),
        transport=gas_transport(geom='linear',
                                diam=3.721,
                                well_depth=265.3,
                                rot_relax=2.5),
        note=u'121386')

species(name=u'c2h3',
        atoms='H:3 C:2',
        thermo=(NASA([300.00, 1000.00],
                     [ 2.45927600E+00,  7.37147600E-03,  2.10987300E-06,
                      -1.32164200E-09, -1.18478400E-12,  3.33522500E+04,
                       1.15562000E+01]),
                NASA([1000.00, 5000.00],
                     [ 5.93346800E+00,  4.01774600E-03, -3.96674000E-07,
                      -1.44126700E-10,  2.37864400E-14,  3.18543500E+04,
                      -8.53031300E+00])),
        transport=gas_transport(geom='nonlinear',
                                diam=3.721,
                                well_depth=265.3,
                                rot_relax=1.0),
        note=u'12787')

species(name=u'ch3oh',
        atoms='H:4 C:1 O:1',
        thermo=(NASA([300.00, 1000.00],
                     [ 2.66011500E+00,  7.34150800E-03,  7.17005100E-06,
                      -8.79319400E-09,  2.39057000E-12, -2.53534800E+04,
                       1.12326300E+01]),
                NASA([1000.00, 5000.00],
                     [ 4.02906100E+00,  9.37659300E-03, -3.05025400E-06,
                       4.35879300E-10, -2.22472300E-14, -2.61579100E+04,
                       2.37819600E+00])),
        transport=gas_transport(geom='nonlinear',
                                diam=3.626,
                                well_depth=481.8,
                                rot_relax=1.0),
        note=u'121686')

species(name=u'ch2oh',
        atoms='H:3 C:1 O:1',
        thermo=(NASA([250.00, 1000.00],
                     [ 2.86262800E+00,  1.00152700E-02, -5.28543600E-07,
                      -5.13854000E-09,  2.24604100E-12, -3.34967900E+03,
                       1.03979400E+01]),
                NASA([1000.00, 4000.00],
                     [ 6.32752000E+00,  3.60827100E-03, -3.20154700E-07,
                      -1.93875000E-10,  3.50970500E-14, -4.47450900E+03,
                      -8.32936600E+00])),
        transport=gas_transport(geom='nonlinear',
                                diam=3.69,
                                well_depth=417.0,
                                dipole=1.7,
                                rot_relax=2.0),
        note=u'120186')

species(name=u'ch2co',
        atoms='H:2 C:2 O:1',
        thermo=(NASA([300.00, 1000.00],
                     [ 2.97497100E+00,  1.21187100E-02, -2.34504600E-06,
                      -6.46668500E-09,  3.90564900E-12, -7.63263700E+03,
                       8.67355300E+00]),
                NASA([1000.00, 5000.00],
                     [ 6.03881700E+00,  5.80484000E-03, -1.92095400E-06,
                       2.79448500E-10, -1.45886800E-14, -8.58340200E+03,
                      -7.65758100E+00])),
        transport=gas_transport(geom='nonlinear',
                                diam=3.97,
                                well_depth=436.0,
                                rot_relax=2.0),
        note=u'121686')

species(name=u'hcco',
        atoms='H:1 C:2 O:1',
        thermo=(NASA([300.00, 1000.00],
                     [ 5.04796500E+00,  4.45347800E-03,  2.26828300E-07,
                      -1.48209500E-09,  2.25074200E-13,  1.96589200E+04,
                       4.81843900E-01]),
                NASA([1000.00, 4000.00],
                     [ 6.75807300E+00,  2.00040000E-03, -2.02760700E-07,
                      -1.04113200E-10,  1.96516500E-14,  1.90151300E+04,
                      -9.07126200E+00])),
        transport=gas_transport(geom='nonlinear',
                                diam=2.5,
                                well_depth=150.0,
                                rot_relax=1.0),
        note=u'32387')

species(name=u'pc2h4oh',
        atoms='H:5 C:2 O:1',
        thermo=(NASA([300.00, 1391.00],
                     [ 1.17714711E+00,  2.48115685E-02, -1.50299503E-05,
                       4.79006785E-09, -6.40994211E-13, -4.95369043E+03,
                       2.20081586E+01]),
                NASA([1391.00, 5000.00],
                     [ 7.52241939E+00,  1.10492715E-02, -3.72576465E-06,
                       5.72827397E-10, -3.30061759E-14, -7.29333590E+03,
                      -1.24958732E+01])),
        transport=gas_transport(geom='nonlinear',
                                diam=4.41,
                                well_depth=470.6,
                                rot_relax=1.5),
        note=u'3/12/95therm')

species(name=u'sc2h4oh',
        atoms='H:5 C:2 O:1',
        thermo=(NASA([300.00, 1392.00],
                     [ 1.91496477E+00,  2.45693145E-02, -1.63075399E-05,
                       6.12282361E-09, -1.00784363E-12, -8.62161551E+03,
                       1.65987309E+01]),
                NASA([1392.00, 5000.00],
                     [ 7.83524517E+00,  1.08808198E-02, -3.68694127E-06,
                       5.68601361E-10, -3.28288951E-14, -1.07534311E+04,
                      -1.53495702E+01])),
        transport=gas_transport(geom='nonlinear',
                                diam=4.41,
                                well_depth=470.6,
                                rot_relax=1.5),
        note=u'4/3/0therm')

species(name=u'ch3co',
        atoms='H:3 C:2 O:1',
        thermo=(NASA([300.00, 1000.00],
                     [ 3.12527800E+00,  9.77822000E-03,  4.52144800E-06,
                      -9.00946200E-09,  3.19371800E-12, -4.10850800E+03,
                       1.12288500E+01]),
                NASA([1000.00, 5000.00],
                     [ 5.61227900E+00,  8.44988600E-03, -2.85414700E-06,
                       4.23837600E-10, -2.26840400E-14, -5.18786300E+03,
                      -3.27494900E+00])),
        transport=gas_transport(geom='nonlinear',
                                diam=3.97,
                                well_depth=436.0,
                                rot_relax=2.0),
        note=u'120186')

species(name=u'ch2cho',
        atoms='H:3 C:2 O:1',
        thermo=(NASA([300.00, 1000.00],
                     [ 3.40906200E+00,  1.07385700E-02,  1.89149200E-06,
                      -7.15858300E-09,  2.86738500E-12,  1.52147700E+03,
                       9.55829000E+00]),
                NASA([1000.00, 5000.00],
                     [ 5.97567000E+00,  8.13059100E-03, -2.74362400E-06,
                       4.07030400E-10, -2.17601700E-14,  4.90321800E+02,
                      -5.04525100E+00])),
        transport=gas_transport(geom='nonlinear',
                                diam=3.97,
                                well_depth=436.0,
                                rot_relax=2.0),
        note=u'110393')

species(name=u'ch3cho',
        atoms='H:4 C:2 O:1',
        thermo=(NASA([300.00, 1000.00],
                     [ 2.50569500E+00,  1.33699100E-02,  4.67195300E-06,
                      -1.12814000E-08,  4.26356600E-12, -2.12458900E+04,
                       1.33508900E+01]),
                NASA([1000.00, 5000.00],
                     [ 5.86865000E+00,  1.07942400E-02, -3.64553000E-06,
                       5.41291200E-10, -2.89684400E-14, -2.26456900E+04,
                      -6.01294600E+00])),
        transport=gas_transport(geom='nonlinear',
                                diam=3.97,
                                well_depth=436.0,
                                rot_relax=2.0),
        note=u'120186')

species(name=u'c3h4-a',
        atoms='H:4 C:3',
        thermo=(NASA([300.00, 1400.00],
                     [ 2.53983100E+00,  1.63343700E-02, -1.76495000E-06,
                      -4.64736500E-09,  1.72913100E-12,  2.25124300E+04,
                       9.93570200E+00]),
                NASA([1400.00, 4000.00],
                     [ 9.77625600E+00,  5.30213800E-03, -3.70111800E-07,
                      -3.02638600E-10,  5.08958100E-14,  1.95497200E+04,
                      -3.07706100E+01])),
        transport=gas_transport(geom='linear',
                                diam=4.29,
                                well_depth=324.8,
                                rot_relax=1.0),
        note=u'101993')

species(name=u'c3h4-p',
        atoms='H:4 C:3',
        thermo=(NASA([300.00, 1400.00],
                     [ 3.02973000E+00,  1.49896100E-02, -1.39850000E-06,
                      -3.96961900E-09,  1.38821700E-12,  2.14840800E+04,
                       8.00459400E+00]),
                NASA([1400.00, 4000.00],
                     [ 9.76810200E+00,  5.21915100E-03, -3.75314000E-07,
                      -2.99219100E-10,  5.10787800E-14,  1.86027700E+04,
                      -3.02067800E+01])),
        transport=gas_transport(geom='linear',
                                diam=4.29,
                                well_depth=324.8,